warn: Max ticks has already been set prior to setting it through the run call. In these cases the max ticks set through the `run` function is used
Global frequency set at 1000000000000 ticks per second
warn: board.workload.acpi_description_table_pointer.rsdt adopting orphan SimObject param 'entries'
warn: failed to generate dot output from m5out/bound_test/config.dot
warn: failed to generate dot output from m5out/bound_test/config.board.cache_hierarchy.ruby_system.dot
src/mem/dram_interface.cc:690: warn: DRAM device capacity (16384 Mbytes) does not match the address range assigned (2048 Mbytes)
src/mem/dram_interface.cc:690: warn: DRAM device capacity (16384 Mbytes) does not match the address range assigned (2048 Mbytes)
src/sim/kernel_workload.cc:46: info: kernel located at: /home/wxl/.cache/gem5/x86-linux-kernel-6.8.0-52-generic-1.0.0
src/base/statistics.hh:279: warn: One of the stats is a legacy stat. Legacy stat is a stat that does not belong to any statistics::Group. Legacy stat is deprecated.
      0: board.pc.south_bridge.cmos.rtc: Real-time clock set to Sun Jan  1 00:00:00 2012
board.pc.com_1.device: Listening for connections on port 3456
src/base/statistics.hh:279: warn: One of the stats is a legacy stat. Legacy stat is a stat that does not belong to any statistics::Group. Legacy stat is deprecated.
src/base/stats/storage.hh:278: warn: Bucket size (4) does not divide range [1:32] into equal-sized buckets. Rounding up.
src/base/stats/storage.hh:278: warn: Bucket size (4) does not divide range [1:8] into equal-sized buckets. Rounding up.
src/base/stats/storage.hh:278: warn: Bucket size (4) does not divide range [1:32] into equal-sized buckets. Rounding up.
src/base/stats/storage.hh:278: warn: Bucket size (4) does not divide range [1:8] into equal-sized buckets. Rounding up.
src/base/stats/storage.hh:278: warn: Bucket size (4) does not divide range [1:32] into equal-sized buckets. Rounding up.
src/base/stats/storage.hh:278: warn: Bucket size (4) does not divide range [1:8] into equal-sized buckets. Rounding up.
src/base/stats/storage.hh:278: warn: Bucket size (4) does not divide range [1:32] into equal-sized buckets. Rounding up.
src/base/stats/storage.hh:278: warn: Bucket size (4) does not divide range [1:8] into equal-sized buckets. Rounding up.
src/dev/intel_8254_timer.cc:130: warn: Reading current count from inactive timer.
board.remote_gdb: Listening for connections on port 7000
gem5 Simulator System.  https://www.gem5.org
gem5 is copyrighted software; use the --copyright option for details.

gem5 version 25.1.0.1
gem5 compiled Jul 19 2026 12:41:34
gem5 started Jul 21 2026 16:14:04
gem5 executing on newpg, pid 73269
command line: ./build/X86_MESI_Three_Level/gem5.opt --outdir=m5out/bound_test docs/refs/scripts/x86_fs_mesi3_parallel_eventq_o3.py

info: Using default config
[parallel-eventq-o3] mode=PARALLEL cores=4 cpu=O3 L2=private/1MiB L3=shared/8MiB link_latency=20cyc max_outstanding_requests=32 restore=/workspace/gem5-ckpt/x86-threads-balanced3-roi-classic
[parallel-eventq-o3] bounded run: 10000000 ticks from restore
[parallel-eventq] 3-level split: 8 EventQueues (cores 1..4, L3=5, mem=6..7), sim_quantum=6660 ticks, host-pin=100,101,102,103,104,105,106,107
src/sim/simulate.cc:176: info: eventq 1: pinned thread to host CPU 101
src/sim/simulate.cc:176: info: eventq 2: pinned thread to host CPU 102
src/sim/simulate.cc:176: info: eventq 3: pinned thread to host CPU 103
src/sim/simulate.cc:176: info: eventq 4: pinned thread to host CPU 104
src/sim/simulate.cc:176: info: eventq 5: pinned thread to host CPU 105
src/sim/simulate.cc:176: info: eventq 6: pinned thread to host CPU 106
src/sim/simulate.cc:176: info: eventq 7: pinned thread to host CPU 107
src/sim/simulate.cc:176: info: eventq 0: pinned thread to host CPU 100
src/mem/ruby/system/Sequencer.cc:739: warn: Replacement policy updates recently became the responsibility of SLICC state machines. Make sure to setMRU() near callbacks in .sm files!
